Untitled Document-1
  ChemDraw07062403132D

 16 17  0  0  0  0  0  0  0  0999 V2000
   -2.1933   -0.1679    0.0000 C   0  0  0  0  0  0  0  0  0  0  0  0
   -2.1933   -0.9929    0.0000 C   0  0  0  0  0  0  0  0  0  0  0  0
   -1.4788   -1.4054    0.0000 C   0  0  0  0  0  0  0  0  0  0  0  0
   -0.7644   -0.9929    0.0000 C   0  0  0  0  0  0  0  0  0  0  0  0
   -0.7644   -0.1679    0.0000 C   0  0  0  0  0  0  0  0  0  0  0  0
   -1.4788    0.2446    0.0000 N   0  0  0  0  0  0  0  0  0  0  0  0
    0.0203   -1.2479    0.0000 N   0  0  0  0  0  0  0  0  0  0  0  0
    0.5052   -0.5804    0.0000 C   0  0  0  0  0  0  0  0  0  0  0  0
    0.0203    0.0870    0.0000 N   0  0  0  0  0  0  0  0  0  0  0  0
   -1.4788   -2.2304    0.0000 O   0  0  0  0  0  0  0  0  0  0  0  0
    0.4328    0.8015    0.0000 C   0  0  0  0  0  0  0  0  0  0  0  0
    1.2578    0.8015    0.0000 O   0  0  0  0  0  0  0  0  0  0  0  0
    1.6703    1.5160    0.0000 C   0  0  0  0  0  0  0  0  0  0  0  0
    2.4953    1.5160    0.0000 C   0  0  0  0  0  0  0  0  0  0  0  0
    2.9078    2.2304    0.0000 O   0  0  0  0  0  0  0  0  0  0  0  0
   -2.9078    0.2446    0.0000 N   0  0  0  0  0  0  0  0  0  0  0  0
  1  2  2  0      
  2  3  1  0      
  3  4  1  0      
  4  5  2  0      
  5  6  1  0      
  6  1  1  0      
  4  7  1  0      
  7  8  2  0      
  8  9  1  0      
  9  5  1  0      
  3 10  2  0      
  9 11  1  0      
 11 12  1  0      
 12 13  1  0      
 13 14  1  0      
 14 15  1  0      
  1 16  1  0      
M  END
$$$$
